Version 4
SHEET 1 5196 796
WIRE 1584 -1520 64 -1520
WIRE 960 -1360 768 -1360
WIRE 1200 -1360 1024 -1360
WIRE 576 -1152 192 -1152
WIRE 768 -1152 768 -1360
WIRE 768 -1152 576 -1152
WIRE 832 -1152 768 -1152
WIRE 1200 -1152 1200 -1360
WIRE 1200 -1152 1152 -1152
WIRE 1232 -1152 1200 -1152
WIRE 1344 -1152 1296 -1152
WIRE 576 -1104 576 -1152
WIRE 1584 -1072 1584 -1520
WIRE 1584 -1072 1504 -1072
WIRE 768 -1056 768 -1152
WIRE 832 -1056 768 -1056
WIRE 1440 -1056 1152 -1056
WIRE 1584 -1040 1504 -1040
WIRE 2048 -1040 1584 -1040
WIRE 576 -960 576 -1024
WIRE 832 -960 576 -960
WIRE 1344 -960 1344 -1152
WIRE 1344 -960 1152 -960
WIRE 1584 -960 1584 -1040
WIRE 1584 -960 1344 -960
WIRE 1584 -880 1584 -960
WIRE 1584 -880 1504 -880
WIRE 832 -864 320 -864
WIRE 1440 -864 1152 -864
WIRE 1584 -848 1504 -848
WIRE 64 -832 64 -1520
WIRE 192 -832 192 -1152
WIRE 320 -832 320 -864
WIRE 2048 -816 2048 -1040
WIRE 832 -768 704 -768
WIRE 1584 -768 1584 -848
WIRE 1584 -768 1152 -768
WIRE 64 -608 64 -752
WIRE 192 -608 192 -752
WIRE 320 -608 320 -752
WIRE 704 -608 704 -768
WIRE 992 -608 992 -704
WIRE 1584 -608 1584 -768
WIRE 2048 -608 2048 -736
WIRE 0 32 0 0
WIRE 128 32 128 0
WIRE 272 32 272 0
WIRE 816 128 816 80
WIRE 1456 128 1456 80
WIRE 2112 128 2112 80
WIRE 0 144 0 112
WIRE 128 144 128 112
WIRE 272 144 272 112
WIRE 432 208 304 208
WIRE 608 208 432 208
WIRE 976 208 896 208
WIRE 1248 208 976 208
WIRE 1600 208 1536 208
WIRE 1904 208 1600 208
WIRE 2256 208 2192 208
WIRE 688 336 688 288
WIRE 816 336 816 288
WIRE 1328 336 1328 288
WIRE 1456 336 1456 288
WIRE 1984 336 1984 288
WIRE 2112 336 2112 288
WIRE 304 352 304 208
WIRE 304 544 304 432
FLAG 304 544 0
FLAG 0 144 0
FLAG 128 144 0
FLAG 0 0 Vp
FLAG 128 0 Vn
FLAG 816 80 Vp
FLAG 816 336 Vn
FLAG 976 208 OUT1
FLAG 272 144 0
FLAG 272 0 Vref
FLAG 688 336 Vref
FLAG 432 208 IN
FLAG 1600 208 OUT2
FLAG 1456 80 Vp
FLAG 1456 336 Vn
FLAG 1328 336 Vref
FLAG 2256 208 OUT
FLAG 2112 80 Vp
FLAG 2112 336 Vn
FLAG 1984 336 Vref
FLAG 1584 -608 0
FLAG 992 -608 0
FLAG 704 -608 0
FLAG 192 -608 0
FLAG 320 -608 0
FLAG 64 -608 0
FLAG 2048 -608 0
SYMBOL voltage 304 336 R0
WINDOW 123 24 124 Left 2
WINDOW 39 0 0 Left 2
SYMATTR Value2 AC 1
SYMATTR InstName VIN
SYMATTR Value SINE(0 2.5 304k)
SYMBOL voltage 0 16 R0
WINDOW 123 0 0 Left 2
WINDOW 39 0 0 Left 2
SYMATTR InstName V2
SYMATTR Value 4
SYMBOL voltage 128 16 R0
WINDOW 123 0 0 Left 2
WINDOW 39 0 0 Left 2
SYMATTR InstName V3
SYMATTR Value -4
SYMBOL voltage 272 16 R0
WINDOW 123 0 0 Left 2
WINDOW 39 0 0 Left 2
SYMATTR InstName V1
SYMATTR Value 0
SYMBOL StageA_BandPassDeliyannisFriendNoPosFB_AD8038 640 160 R0
WINDOW 39 -35 -155 Left 2
WINDOW 0 -36 -221 Left 2
SYMATTR InstName STAGE1
SYMBOL StageB_BandPassDeliyannisFriendNoPosFB_AD8038 1280 160 R0
WINDOW 0 -35 -219 Left 2
WINDOW 39 -36 -158 Left 2
SYMATTR InstName STAGE2
SYMBOL StageC_BandPassDeliyannisFriendNoPosFB_AD8038 1936 160 R0
WINDOW 0 -35 -219 Left 2
WINDOW 39 -35 -157 Left 2
SYMATTR InstName STAGE3
SYMBOL AutoGenerated/NMOS_SSM6K361NU 1472 -864 R0
SYMATTR InstName U1
SYMBOL AutoGenerated/NMOS_SSM6K361NU 1472 -1056 R0
SYMATTR InstName U2
SYMBOL PowerProducts/LTC7060 992 -960 R0
SYMATTR InstName U3
SYMBOL cap 1296 -1168 R90
WINDOW 0 0 32 VBottom 2
WINDOW 3 32 32 VTop 2
SYMATTR InstName C1
SYMATTR Value 220n
SYMBOL schottky 960 -1344 R270
WINDOW 0 32 32 VTop 2
WINDOW 3 0 32 VBottom 2
SYMATTR InstName D1
SYMATTR Value MBRS1100
SYMBOL voltage 320 -848 R0
SYMATTR InstName V4
SYMATTR Value PULSE(0 3.3 0 1n 1n 714n 1429n 1000)
SYMBOL voltage 192 -848 R0
SYMATTR InstName V5
SYMATTR Value 10
SYMBOL res 560 -1120 R0
SYMATTR InstName R1
SYMATTR Value 51k
SYMBOL voltage 64 -848 R0
SYMATTR InstName V6
SYMATTR Value 40
SYMBOL res 2032 -832 R0
SYMATTR InstName R2
SYMATTR Value 25
TEXT 280 648 Left 2 !.AC DEC 1001 10 20Meg
TEXT 848 648 Left 2 ;If you're having trouble with simulation try the following:\n \n- Ensure that LTspice circuit folder is unzipped.  LTspice won't \nbe able to locate subcircuits if the folders are still zipped.\n \n- Update LTspice - devices that have been recently added to LTspice\nwon't be available unless you update by clicking Tools -> Sync Release.
TEXT 264 704 Left 2 !.lib NMOS_SSM6K361NU.lib
