Version 4
SHEET 1 5196 796
WIRE 0 32 0 0
WIRE 128 32 128 0
WIRE 272 32 272 0
WIRE 816 128 816 80
WIRE 1456 128 1456 80
WIRE 2112 128 2112 80
WIRE 0 144 0 112
WIRE 128 144 128 112
WIRE 272 144 272 112
WIRE 432 208 304 208
WIRE 608 208 432 208
WIRE 976 208 896 208
WIRE 1248 208 976 208
WIRE 1600 208 1536 208
WIRE 1904 208 1600 208
WIRE 2256 208 2192 208
WIRE 2336 208 2256 208
WIRE 2544 208 2416 208
WIRE 688 336 688 288
WIRE 816 336 816 288
WIRE 1328 336 1328 288
WIRE 1456 336 1456 288
WIRE 304 352 304 208
WIRE 1984 384 1984 288
WIRE 2112 384 2112 288
WIRE 2544 384 2544 208
WIRE 304 544 304 432
WIRE 1984 560 1984 464
WIRE 2112 560 2112 464
WIRE 2544 560 2544 448
FLAG 304 544 0
FLAG 0 144 0
FLAG 128 144 0
FLAG 0 0 Vp
FLAG 128 0 Vn
FLAG 816 80 Vp
FLAG 816 336 Vn
FLAG 976 208 OUT1
FLAG 272 144 0
FLAG 272 0 Vref
FLAG 688 336 Vref
FLAG 432 208 IN
FLAG 1600 208 OUT2
FLAG 1456 80 Vp
FLAG 1456 336 Vn
FLAG 1328 336 Vref
FLAG 2256 208 OUT
FLAG 2112 80 Vp
FLAG 1984 560 0
FLAG 2112 560 0
FLAG 2544 560 0
FLAG 2544 208 ADC_IN
SYMBOL voltage 304 336 R0
WINDOW 123 24 124 Left 2
WINDOW 39 0 0 Left 2
SYMATTR Value2 AC 1
SYMATTR InstName VIN
SYMATTR Value PULSE(0 2.5 0 1n 1n 714n 1429n 100)
SYMBOL voltage 0 16 R0
WINDOW 123 0 0 Left 2
WINDOW 39 0 0 Left 2
SYMATTR InstName V2
SYMATTR Value 4
SYMBOL voltage 128 16 R0
WINDOW 123 0 0 Left 2
WINDOW 39 0 0 Left 2
SYMATTR InstName V3
SYMATTR Value -4
SYMBOL voltage 272 16 R0
WINDOW 123 0 0 Left 2
WINDOW 39 0 0 Left 2
SYMATTR InstName V1
SYMATTR Value 0
SYMBOL StageA_BandPassDeliyannisFriendNoPosFB_AD8038 640 160 R0
WINDOW 39 -35 -155 Left 2
WINDOW 0 -36 -221 Left 2
SYMATTR InstName STAGE1
SYMBOL StageB_BandPassDeliyannisFriendNoPosFB_AD8038 1280 160 R0
WINDOW 0 -35 -219 Left 2
WINDOW 39 -36 -158 Left 2
SYMATTR InstName STAGE2
SYMBOL StageC_BandPassDeliyannisFriendNoPosFB_AD8038 1936 160 R0
WINDOW 0 -35 -219 Left 2
WINDOW 39 -35 -157 Left 2
SYMATTR InstName STAGE3
SYMBOL voltage 1984 368 R0
WINDOW 123 0 0 Left 2
WINDOW 39 0 0 Left 2
SYMATTR InstName V4
SYMATTR Value 1.5
SYMBOL voltage 2112 368 R0
WINDOW 123 0 0 Left 2
WINDOW 39 0 0 Left 2
SYMATTR InstName V5
SYMATTR Value -4
SYMBOL res 2432 192 R90
WINDOW 0 0 56 VBottom 2
WINDOW 3 32 56 VTop 2
SYMATTR InstName R1
SYMATTR Value 100
SYMBOL cap 2528 384 R0
SYMATTR InstName C1
SYMATTR Value 1n
TEXT 280 648 Left 2 ;.TRAN 34.9u
TEXT 848 648 Left 2 ;If you're having trouble with simulation try the following:\n \n- Ensure that LTspice circuit folder is unzipped.  LTspice won't \nbe able to locate subcircuits if the folders are still zipped.\n \n- Update LTspice - devices that have been recently added to LTspice\nwon't be available unless you update by clicking Tools -> Sync Release.
TEXT 288 696 Left 2 !.ac dec 1001 500k 2Meg
